#======================================================================

# CRYSTAL DATA

#----------------------------------------------------------------------

data_VESTA_phase_1


_chemical_name_common                  ''
_cell_length_a                         9.35660
_cell_length_b                         12.74630
_cell_length_c                         27.03430
_cell_angle_alpha                      90
_cell_angle_beta                       90
_cell_angle_gamma                      90
_space_group_name_H-M_alt              'P 1'
_space_group_IT_number                 1

loop_
_space_group_symop_operation_xyz
   'x, y, z'

loop_
   _atom_site_label
   _atom_site_occupancy
   _atom_site_fract_x
   _atom_site_fract_y
   _atom_site_fract_z
   _atom_site_adp_type
   _atom_site_B_iso_or_equiv
   _atom_site_type_symbol
   O1         1.0    -0.000000     -0.000000      0.140242     Biso  1.000000 O
   O2         1.0    -0.000000      0.250000      0.258113     Biso  1.000000 O
   O3         1.0    -0.000000     -0.000000      0.375984     Biso  1.000000 O
   O4         1.0    -0.000000      0.250000      0.493856     Biso  1.000000 O
   O5         1.0    -0.000000     -0.000000      0.048707     Biso  1.000000 O
   O6         1.0     0.000000      0.250000      0.166578     Biso  1.000000 O
   O7         1.0     0.000000      0.000000      0.284449     Biso  1.000000 O
   O8         1.0     0.000000      0.250000      0.402320     Biso  1.000000 O
   O9         1.0     0.166667      0.152928      0.094474     Biso  1.000000 O
   O10        1.0     0.166667      0.402928      0.212346     Biso  1.000000 O
   O11        1.0     0.166667      0.152928      0.330217     Biso  1.000000 O
   O12        1.0     0.166667      0.402928      0.448088     Biso  1.000000 O
   O13        1.0     0.166667      0.347071      0.094474     Biso  1.000000 O
   O14        1.0     0.166667      0.097071      0.212346     Biso  1.000000 O
   O15        1.0     0.166667      0.347071      0.330217     Biso  1.000000 O
   O16        1.0     0.166667      0.097071      0.448088     Biso  1.000000 O
   O17        1.0     0.333333     -0.000000      0.140242     Biso  1.000000 O
   O18        1.0     0.333333      0.250000      0.258113     Biso  1.000000 O
   O19        1.0     0.333333     -0.000000      0.375984     Biso  1.000000 O
   O20        1.0     0.333333      0.250000      0.493856     Biso  1.000000 O
   O21        1.0     0.333333     -0.000000      0.048707     Biso  1.000000 O
   O22        1.0     0.333333      0.250000      0.166578     Biso  1.000000 O
   O23        1.0     0.333333      0.000000      0.284449     Biso  1.000000 O
   O24        1.0     0.333333      0.250000      0.402320     Biso  1.000000 O
   O25        1.0     0.500000      0.152928      0.094474     Biso  1.000000 O
   O26        1.0     0.500000      0.402928      0.212346     Biso  1.000000 O
   O27        1.0     0.500000      0.152928      0.330217     Biso  1.000000 O
   O28        1.0     0.500000      0.402928      0.448088     Biso  1.000000 O
   O29        1.0     0.500000      0.347071      0.094474     Biso  1.000000 O
   O30        1.0     0.500000      0.097071      0.212346     Biso  1.000000 O
   O31        1.0     0.500000      0.347071      0.330217     Biso  1.000000 O
   O32        1.0     0.500000      0.097071      0.448088     Biso  1.000000 O
   O33        1.0     0.666667     -0.000000      0.140242     Biso  1.000000 O
   O34        1.0     0.666667      0.250000      0.258113     Biso  1.000000 O
   O35        1.0     0.666667     -0.000000      0.375984     Biso  1.000000 O
   O36        1.0     0.666667      0.250000      0.493856     Biso  1.000000 O
   O37        1.0     0.666667     -0.000000      0.048707     Biso  1.000000 O
   O38        1.0     0.666667      0.250000      0.166578     Biso  1.000000 O
   O39        1.0     0.666667      0.000000      0.284449     Biso  1.000000 O
   O40        1.0     0.666667      0.250000      0.402320     Biso  1.000000 O
   O41        1.0     0.833333      0.152928      0.094474     Biso  1.000000 O
   O42        1.0     0.833333      0.402928      0.212346     Biso  1.000000 O
   O43        1.0     0.833333      0.152928      0.330217     Biso  1.000000 O
   O44        1.0     0.833333      0.402928      0.448088     Biso  1.000000 O
   O45        1.0     0.833333      0.347071      0.094474     Biso  1.000000 O
   O46        1.0     0.833333      0.097071      0.212346     Biso  1.000000 O
   O47        1.0     0.833333      0.347071      0.330217     Biso  1.000000 O
   O48        1.0     0.833333      0.097071      0.448088     Biso  1.000000 O
   O49        1.0     0.000000      0.500000      0.140242     Biso  1.000000 O
   O50        1.0    -0.000000      0.750000      0.258113     Biso  1.000000 O
   O51        1.0    -0.000000      0.500000      0.375984     Biso  1.000000 O
   O52        1.0    -0.000000      0.750000      0.493856     Biso  1.000000 O
   O53        1.0    -0.000000      0.500000      0.048707     Biso  1.000000 O
   O54        1.0    -0.000000      0.750000      0.166578     Biso  1.000000 O
   O55        1.0     0.000000      0.500000      0.284449     Biso  1.000000 O
   O56        1.0    -0.000000      0.750000      0.402320     Biso  1.000000 O
   O57        1.0     0.166667      0.652928      0.094474     Biso  1.000000 O
   O58        1.0     0.166667      0.902929      0.212346     Biso  1.000000 O
   O59        1.0     0.166667      0.652928      0.330217     Biso  1.000000 O
   O60        1.0     0.166667      0.902928      0.448088     Biso  1.000000 O
   O61        1.0     0.166667      0.847072      0.094474     Biso  1.000000 O
   O62        1.0     0.166667      0.597072      0.212346     Biso  1.000000 O
   O63        1.0     0.166667      0.847072      0.330217     Biso  1.000000 O
   O64        1.0     0.166667      0.597071      0.448088     Biso  1.000000 O
   O65        1.0     0.333333      0.500000      0.140242     Biso  1.000000 O
   O66        1.0     0.333333      0.750000      0.258113     Biso  1.000000 O
   O67        1.0     0.333333      0.500000      0.375984     Biso  1.000000 O
   O68        1.0     0.333333      0.750000      0.493856     Biso  1.000000 O
   O69        1.0     0.333333      0.500000      0.048707     Biso  1.000000 O
   O70        1.0     0.333333      0.750000      0.166578     Biso  1.000000 O
   O71        1.0     0.333333      0.500000      0.284449     Biso  1.000000 O
   O72        1.0     0.333333      0.750000      0.402320     Biso  1.000000 O
   O73        1.0     0.500000      0.652928      0.094474     Biso  1.000000 O
   O74        1.0     0.500000      0.902929      0.212346     Biso  1.000000 O
   O75        1.0     0.500000      0.652928      0.330217     Biso  1.000000 O
   O76        1.0     0.500000      0.902928      0.448088     Biso  1.000000 O
   O77        1.0     0.500000      0.847072      0.094474     Biso  1.000000 O
   O78        1.0     0.500000      0.597072      0.212346     Biso  1.000000 O
   O79        1.0     0.500000      0.847072      0.330217     Biso  1.000000 O
   O80        1.0     0.500000      0.597071      0.448088     Biso  1.000000 O
   O81        1.0     0.666667      0.500000      0.140242     Biso  1.000000 O
   O82        1.0     0.666667      0.750000      0.258113     Biso  1.000000 O
   O83        1.0     0.666667      0.500000      0.375984     Biso  1.000000 O
   O84        1.0     0.666667      0.750000      0.493856     Biso  1.000000 O
   O85        1.0     0.666667      0.500000      0.048707     Biso  1.000000 O
   O86        1.0     0.666667      0.750000      0.166578     Biso  1.000000 O
   O87        1.0     0.666667      0.500000      0.284449     Biso  1.000000 O
   O88        1.0     0.666667      0.750000      0.402320     Biso  1.000000 O
   O89        1.0     0.833333      0.652928      0.094474     Biso  1.000000 O
   O90        1.0     0.833333      0.902929      0.212346     Biso  1.000000 O
   O91        1.0     0.833333      0.652928      0.330217     Biso  1.000000 O
   O92        1.0     0.833333      0.902928      0.448088     Biso  1.000000 O
   O93        1.0     0.833333      0.847072      0.094474     Biso  1.000000 O
   O94        1.0     0.833333      0.597072      0.212346     Biso  1.000000 O
   O95        1.0     0.833333      0.847072      0.330217     Biso  1.000000 O
   O96        1.0     0.833333      0.597071      0.448088     Biso  1.000000 O
   Co1        1.0     0.333333      0.500000      0.448088     Biso  1.000000 Co
   Ru1        1.0     0.000000      0.250000      0.094474     Biso  1.000000 Ru
   Ru2        1.0    -0.000000     -0.000000      0.212346     Biso  1.000000 Ru
   Ru3        1.0    -0.000000      0.250000      0.330217     Biso  1.000000 Ru
   Ru4        1.0     0.000000      0.000000      0.448088     Biso  1.000000 Ru
   Ru5        1.0     0.166667     -0.000000      0.094474     Biso  1.000000 Ru
   Ru6        1.0     0.166667      0.250000      0.212346     Biso  1.000000 Ru
   Ru7        1.0     0.166667     -0.000000      0.330217     Biso  1.000000 Ru
   Ru8        1.0     0.166667      0.250000      0.448088     Biso  1.000000 Ru
   Ru9        1.0     0.333333      0.250000      0.094474     Biso  1.000000 Ru
   Ru10       1.0     0.333333     -0.000000      0.212346     Biso  1.000000 Ru
   Ru11       1.0     0.500000     -0.000000      0.094474     Biso  1.000000 Ru
   Ru12       1.0     0.500000      0.250000      0.212346     Biso  1.000000 Ru
   Ru13       1.0     0.500000     -0.000000      0.330217     Biso  1.000000 Ru
   Ru14       1.0     0.500000      0.250000      0.448088     Biso  1.000000 Ru
   Ru15       1.0     0.666667      0.250000      0.094474     Biso  1.000000 Ru
   Ru16       1.0     0.666667     -0.000000      0.212346     Biso  1.000000 Ru
   Ru17       1.0     0.666667      0.250000      0.330217     Biso  1.000000 Ru
   Ru18       1.0     0.666667      0.000000      0.448088     Biso  1.000000 Ru
   Ru19       1.0     0.833333     -0.000000      0.094474     Biso  1.000000 Ru
   Ru20       1.0     0.833333      0.250000      0.212346     Biso  1.000000 Ru
   Ru21       1.0     0.833333     -0.000000      0.330217     Biso  1.000000 Ru
   Ru22       1.0     0.833333      0.250000      0.448088     Biso  1.000000 Ru
   Ru23       1.0    -0.000000      0.750000      0.094474     Biso  1.000000 Ru
   Ru24       1.0     0.000000      0.500000      0.212346     Biso  1.000000 Ru
   Ru25       1.0     0.166667      0.500000      0.094474     Biso  1.000000 Ru
   Ru26       1.0     0.166667      0.750000      0.212346     Biso  1.000000 Ru
   Ru27       1.0     0.166667      0.500000      0.330217     Biso  1.000000 Ru
   Ru28       1.0     0.166667      0.750000      0.448088     Biso  1.000000 Ru
   Ru29       1.0     0.333333      0.750000      0.094474     Biso  1.000000 Ru
   Ru30       1.0     0.333333      0.500000      0.212346     Biso  1.000000 Ru
   Ru31       1.0     0.333333      0.750000      0.330217     Biso  1.000000 Ru
   Ru32       1.0     0.500000      0.500000      0.094474     Biso  1.000000 Ru
   Ru33       1.0     0.500000      0.750000      0.212346     Biso  1.000000 Ru
   Ru34       1.0     0.500000      0.500000      0.330217     Biso  1.000000 Ru
   Ru35       1.0     0.500000      0.750000      0.448088     Biso  1.000000 Ru
   Ru36       1.0     0.666667      0.750000      0.094474     Biso  1.000000 Ru
   Ru37       1.0     0.666667      0.500000      0.212346     Biso  1.000000 Ru
   Ru38       1.0     0.666667      0.750000      0.330217     Biso  1.000000 Ru
   Ru39       1.0     0.833333      0.500000      0.094474     Biso  1.000000 Ru
   Ru40       1.0     0.833333      0.750000      0.212346     Biso  1.000000 Ru
   Ru41       1.0     0.833333      0.500000      0.330217     Biso  1.000000 Ru
   Ru42       1.0     0.833333      0.750000      0.448088     Biso  1.000000 Ru
   Y1         1.0     0.333333      0.250000      0.330217     Biso  1.000000 Y
   Y2         1.0     0.000000      0.500000      0.448088     Biso  1.000000 Y
   Zn1        1.0    -0.000000      0.750000      0.330217     Biso  1.000000 Zn
   Zn2        1.0     0.333333      0.000000      0.448088     Biso  1.000000 Zn
   Zn3        1.0     0.666667      0.500000      0.448088     Biso  1.000000 Zn
